Version 4
SHEET 1 576 348
TEXT -224 -16 Left 2 !.MODEL PMOS PMOS LEVEL = 1\n+ VTO = -0.524\n+GAMMA = 0.4\n+PHI = 0.8\n+TOX = 3.93E-9\n+NSUB = 5E14\n+LD = 0.09E-6\n+ UO = 100\n+LAMBDA = 0.13\n+CJ = 0.94E-3\n+CJSW = 0.32E-11\n+PB = 0.9\n+MJ = 0.5\n+ MJSW = 0.3\n+CGDO = 0.3E-9\n+JS = 0.5E-8
TEXT 232 -16 Left 2 !.MODEL NMOS NMOS LEVEL = 1\n+ VTO = 0.55\n+GAMMA = 0.45\n+PHI = 0.9\n+TOX = 3.93E-9\n+NSUB = 9E14\n+LD = 0.08E-6\n+ UO = 350\n+LAMBDA = 0.15\n+CJ = 0.56E-3\n+CJSW = 0.35E-11\n+PB = 0.9\n+MJ = 0.0.45\n+ MJSW = 0.2\n+CGDO = 0.4E-9\n+JS = 1.0E-8
